result/pf_result.json
{
    "solve_time": 0.17100000381469727,
    "optimizer": "Ipopt",
    "termination_status": "LOCALLY_SOLVED",
    "dual_status": "FEASIBLE_POINT",
    "primal_status": "FEASIBLE_POINT",
    "objective": 0.0,
    "solution": {
        "voltage_source": {
            "source": {
                "qg_bus": [
                    1331.8441532288489,
                    1331.8441532288314,
                    1331.8441532285772
                ],
                "qg": [
                    1331.8441532288489,
                    1331.8441532288314,
                    1331.8441532285772
                ],
                "pg": [
                    1475.7084344685534,
                    1475.7084344684704,
                    1475.7084344683808
                ],
                "pg_bus": [
                    1475.7084344685534,
                    1475.7084344684704,
                    1475.7084344683808
                ]
            }
        },
        "line": {
            "l1_1_2": {
                "qf": [
                    843.6838857485988,
                    843.6838857486176,
                    843.6838857484754
                ],
                "qt": [
                    -840.207592934518,
                    -840.2075929345158,
                    -840.207592934418
                ],
                "pt": [
                    -1346.8489165887427,
                    -1346.8489165886224,
                    -1346.8489165886533
                ],
                "pf": [
                    1353.6683675984928,
                    1353.6683675984143,
                    1353.6683675983568
                ]
            },
            "l30_30_31": {
                "qf": [
                    71.07443026407927,
                    71.0744302640823,
                    71.07443026406808
                ],
                "qt": [
                    -70.15679802031887,
                    -70.15679802031887,
                    -70.15679802030773
                ],
                "pt": [
                    -140.13196326664368,
                    -140.13196326664647,
                    -140.1319632666464
                ],
                "pf": [
                    141.06045844663024,
                    141.06045844662773,
                    141.0604584466274
                ]
            },
            "l20_20_21": {
                "qf": [
                    26.758351051522077,
                    26.7583510515221,
                    26.758351051510925
                ],
                "qt": [
                    -26.696830442097863,
                    -26.696830442092303,
                    -26.696830442092303
                ],
                "pt": [
                    -60.02281350731119,
                    -60.022813507313955,
                    -60.022813507311184
                ],
                "pf": [
                    60.075473811570276,
                    60.075473811578625,
                    60.075473811570234
                ]
            },
            "l11_11_12": {
                "qf": [
                    82.48115114292638,
                    82.48115114293469,
                    82.48115114292526
                ],
                "qt": [
                    -82.31155307426546,
                    -82.31155307427099,
                    -82.3115530742616
                ],
                "pt": [
                    -172.5331754701635,
                    -172.53317547016627,
                    -172.53317547015263
                ],
                "pf": [
                    173.04607948395423,
                    173.0460794839681,
                    173.04607948393212
                ]
            },
            "l18_2_19": {
                "qf": [
                    53.89691619203941,
                    53.896916192085314,
                    53.89691619200434
                ],
                "qt": [
                    -53.81677006607517,
                    -53.816770066076614,
                    -53.81677006606239
                ],
                "pt": [
                    -120.51023394267106,
                    -120.51023394267807,
                    -120.51023394266937
                ],
                "pf": [
                    120.59422093729792,
                    120.59422093732718,
                    120.59422093731833
                ]
            },
            "l32_32_33": {
                "qf": [
                    13.34527372965358,
                    13.34527372964803,
                    13.345273729653591
                ],
                "qt": [
                    -13.333333333333334,
                    -13.333333333333334,
                    -13.333333333333334
                ],
                "pt": [
                    -20.0,
                    -20.0,
                    -20.0
                ],
                "pf": [
                    20.007679508006486,
                    20.00767950799816,
                    20.00767950800927
                ]
            },
            "l2_2_3": {
                "qf": [
                    766.3106767424787,
                    766.3106767424305,
                    766.3106767424135
                ],
                "qt": [
                    -751.494621230059,
                    -751.4946212300222,
                    -751.4946212300035
                ],
                "pt": [
                    -1163.832093629838,
                    -1163.8320936296996,
                    -1163.832093629747
                ],
                "pf": [
                    1192.9213623181115,
                    1192.921362317962,
                    1192.9213623180017
                ]
            },
            "l10_10_11": {
                "qf": [
                    92.58756122835445,
                    92.58756122836827,
                    92.5875612283644
                ],
                "qt": [
                    -92.48115114292638,
                    -92.48115114293469,
                    -92.48115114292526
                ],
                "pt": [
                    -188.04607948395426,
                    -188.0460794839681,
                    -188.04607948393212
                ],
                "pf": [
                    188.36792906545904,
                    188.36792906545062,
                    188.36792906541461
                ]
            },
            "l7_7_8": {
                "qf": [
                    143.37776285559218,
                    143.37776285560577,
                    143.37776285560014
                ],
                "qt": [
                    -142.45846584430575,
                    -142.45846584431968,
                    -142.45846584431266
                ],
                "pt": [
                    -299.5222609554811,
                    -299.5222609554653,
                    -299.5222609554288
                ],
                "pf": [
                    302.3040044426358,
                    302.304004442619,
                    302.3040044425824
                ]
            },
            "l22_3_23": {
                "qf": [
                    153.8883090303846,
                    153.8883090303704,
                    153.88830903038178
                ],
                "qt": [
                    -152.72241278199166,
                    -152.72241278198865,
                    -152.72241278199434
                ],
                "pt": [
                    -313.4539326049158,
                    -313.4539326049155,
                    -313.45393260491846
                ],
                "pf": [
                    315.1602329204512,
                    315.1602329204397,
                    315.1602329204484
                ]
            },
            "l16_16_17": {
                "qf": [
                    20.22142370205907,
                    20.221423702059088,
                    20.221423702057585
                ],
                "qt": [
                    -20.024439698840514,
                    -20.024439698840506,
                    -20.0244396988405
                ],
                "pt": [
                    -50.031167002706965,
                    -50.03116700270696,
                    -50.031167002698616
                ],
                "pf": [
                    50.17870470180297,
                    50.178704701805756,
                    50.17870470179596
                ]
            },
            "l26_26_27": {
                "qf": [
                    321.2674894529432,
                    321.26748945294963,
                    321.2674894529301
                ],
                "qt": [
                    -320.28723899485226,
                    -320.28723899485874,
                    -320.28723899483936
                ],
                "pt": [
                    -301.0753402970332,
                    -301.0753402970399,
                    -301.075340297031
                ],
                "pf": [
                    303.00061452086885,
                    303.0006145208753,
                    303.00061452088835
                ]
            },
            "l14_14_15": {
                "qf": [
                    30.527658171484497,
                    30.527658171492877,
                    30.527658171485644
                ],
                "qt": [
                    -30.34180209123824,
                    -30.341802091243814,
                    -30.34180209123672
                ],
                "pt": [
                    -90.34354578776163,
                    -90.34354578776441,
                    -90.34354578775454
                ],
                "pf": [
                    90.55236887412835,
                    90.5523688741284,
                    90.55236887411839
                ]
            },
            "l29_29_30": {
                "qf": [
                    272.22590981125455,
                    272.2259098112604,
                    272.2259098112432
                ],
                "qt": [
                    -271.07443026407924,
                    -271.07443026408225,
                    -271.0744302640681
                ],
                "pt": [
                    -207.72712511329692,
                    -207.72712511329442,
                    -207.72712511329408
                ],
                "pf": [
                    209.98776677748546,
                    209.98776677748862,
                    209.9877667774822
                ]
            },
            "l15_15_16": {
                "qf": [
                    27.00846875790491,
                    27.008468757910478,
                    27.008468757903383
                ],
                "qt": [
                    -26.888090368725738,
                    -26.888090368725756,
                    -26.888090368724253
                ],
                "pt": [
                    -70.17870470180297,
                    -70.17870470180576,
                    -70.17870470179595
                ],
                "pf": [
                    70.34354578776163,
                    70.34354578776441,
                    70.34354578775454
                ]
            },
            "l8_8_9": {
                "qf": [
                    109.12513251097239,
                    109.12513251098632,
                    109.12513251097934
                ],
                "qt": [
                    -107.38569295556492,
                    -107.38569295557676,
                    -107.38569295557271
                ],
                "pt": [
                    -230.43448247520004,
                    -230.4344824751908,
                    -230.43448247515178
                ],
                "pf": [
                    232.85559428881442,
                    232.85559428879864,
                    232.85559428876218
                ]
            },
            "l9_9_10": {
                "qf": [
                    100.71902628889825,
                    100.71902628891009,
                    100.71902628890604
                ],
                "qt": [
                    -99.25422789502112,
                    -99.25422789503494,
                    -99.25422789503106
                ],
                "pt": [
                    -208.36792906545904,
                    -208.36792906545062,
                    -208.36792906541464
                ],
                "pf": [
                    210.43448247520004,
                    210.4344824751908,
                    210.43448247515178
                ]
            },
            "l3_3_4": {
                "qf": [
                    584.2729788663411,
                    584.2729788663185,
                    584.2729788662883
                ],
                "qt": [
                    -578.4759082806889,
                    -578.4759082806743,
                    -578.4759082806493
                ],
                "pt": [
                    -807.2892006538683,
                    -807.2892006537684,
                    -807.2892006538063
                ],
                "pf": [
                    818.6718607093867,
                    818.6718607092599,
                    818.6718607092986
                ]
            },
            "l31_31_32": {
                "qf": [
                    46.82346468698554,
                    46.82346468698554,
                    46.82346468697441
                ],
                "qt": [
                    -46.67860706298691,
                    -46.678607062981364,
                    -46.678607062986934
                ],
                "pt": [
                    -90.00767950800649,
                    -90.00767950799816,
                    -90.00767950800928
                ],
                "pf": [
                    90.13196326664368,
                    90.13196326664645,
                    90.13196326664642
                ]
            },
            "l6_6_7": {
                "qf": [
                    180.3286658735977,
                    180.32866587361022,
                    180.3286658735934
                ],
                "qt": [
                    -176.71109618892552,
                    -176.7110961889391,
                    -176.71109618893345
                ],
                "pt": [
                    -368.97067110930254,
                    -368.9706711092857,
                    -368.9706711092491
                ],
                "pf": [
                    370.06506193827914,
                    370.06506193826203,
                    370.06506193822815
                ]
            },
            "l24_24_25": {
                "qf": [
                    67.2086131378119,
                    67.20861313781187,
                    67.20861313781185
                ],
                "qt": [
                    -66.66666666666667,
                    -66.66666666666667,
                    -66.66666666666667
                ],
                "pt": [
                    -140.00000000000003,
                    -140.00000000000003,
                    -140.00000000000003
                ],
                "pf": [
                    140.69260310675787,
                    140.6926031067606,
                    140.69260310676057
                ]
            },
            "l13_13_14": {
                "qf": [
                    57.75471264827698,
                    57.75471264828257,
                    57.7547126482751
                ],
                "qt": [
                    -57.19432483815116,
                    -57.194324838159545,
                    -57.19432483815231
                ],
                "pt": [
                    -130.55236887412835,
                    -130.5523688741284,
                    -130.5523688741184
                ],
                "pf": [
                    130.97810325196815,
                    130.97810325197096,
                    130.978103251958
                ]
            },
            "l28_28_29": {
                "qf": [
                    299.51560473903953,
                    299.51560473904567,
                    299.5156047390304
                ],
                "qt": [
                    -295.5592431445879,
                    -295.5592431445938,
                    -295.55924314457656
                ],
                "pt": [
                    -249.98776677748543,
                    -249.9877667774886,
                    -249.98776677748216
                ],
                "pf": [
                    254.52916842501295,
                    254.5291684250192,
                    254.5291684250091
                ]
            },
            "l27_27_28": {
                "qf": [
                    311.95390566151895,
                    311.9539056615254,
                    311.95390566150604
                ],
                "qt": [
                    -306.18227140570616,
                    -306.18227140571236,
                    -306.18227140569707
                ],
                "pt": [
                    -274.529168425013,
                    -274.5291684250192,
                    -274.5291684250091
                ],
                "pf": [
                    281.0753402970332,
                    281.0753402970399,
                    281.075340297031
                ]
            },
            "l21_21_22": {
                "qf": [
                    13.363497108764527,
                    13.36349710875897,
                    13.363497108758967
                ],
                "qt": [
                    -13.333333333333334,
                    -13.333333333333334,
                    -13.333333333333334
                ],
                "pt": [
                    -30.000000000000004,
                    -30.000000000000004,
                    -30.000000000000004
                ],
                "pf": [
                    30.022813507311184,
                    30.022813507313955,
                    30.02281350731118
                ]
            },
            "l4_4_5": {
                "qf": [
                    551.8092416140223,
                    551.8092416140076,
                    551.8092416139826
                ],
                "qt": [
                    -546.3426265001407,
                    -546.3426265001278,
                    -546.3426265001026
                ],
                "pt": [
                    -756.5559341937987,
                    -756.5559341937135,
                    -756.55593419374
                ],
                "pf": [
                    767.2892006538683,
                    767.2892006537684,
                    767.2892006538062
                ]
            },
            "l17_17_18": {
                "qf": [
                    13.357773032173846,
                    13.35777303217384,
                    13.357773032173831
                ],
                "qt": [
                    -13.333333333333334,
                    -13.333333333333334,
                    -13.333333333333334
                ],
                "pt": [
                    -30.000000000000004,
                    -30.000000000000004,
                    -30.000000000000004
                ],
                "pf": [
                    30.03116700270697,
                    30.031167002706958,
                    30.03116700269862
                ]
            },
            "l12_12_13": {
                "qf": [
                    70.6448864075988,
                    70.64488640760433,
                    70.64488640759494
                ],
                "qt": [
                    -69.42137931494365,
                    -69.42137931494923,
                    -69.42137931494177
                ],
                "pt": [
                    -150.97810325196815,
                    -150.97810325197096,
                    -150.97810325195798
                ],
                "pf": [
                    152.53317547016354,
                    152.53317547016627,
                    152.5331754701526
                ]
            },
            "l5_5_6": {
                "qf": [
                    536.3426265001407,
                    536.3426265001278,
                    536.3426265001026
                ],
                "qt": [
                    -517.3610745030091,
                    -517.3610745030056,
                    -517.3610745029803
                ],
                "pt": [
                    -714.5674036624736,
                    -714.5674036623959,
                    -714.5674036624195
                ],
                "pf": [
                    736.5559341937987,
                    736.5559341937135,
                    736.55593419374
                ]
            },
            "l23_23_24": {
                "qf": [
                    136.055746115325,
                    136.05574611532197,
                    136.05574611532768
                ],
                "qt": [
                    -133.87527980447857,
                    -133.87527980447854,
                    -133.87527980447854
                ],
                "pt": [
                    -280.6926031067579,
                    -280.69260310676066,
                    -280.6926031067606
                ],
                "pf": [
                    283.45393260491585,
                    283.4539326049155,
                    283.45393260491846
                ]
            },
            "l25_6_26": {
                "qf": [
                    330.36574196274466,
                    330.36574196272875,
                    330.3657419627203
                ],
                "qt": [
                    -329.6008227862766,
                    -329.60082278628295,
                    -329.6008227862634
                ],
                "pt": [
                    -323.00061452086885,
                    -323.0006145208752,
                    -323.00061452088835
                ],
                "pf": [
                    324.50234172419437,
                    324.50234172413394,
                    324.50234172419135
                ]
            },
            "l19_19_20": {
                "qf": [
                    40.48343673274184,
                    40.48343673274328,
                    40.483436732729054
                ],
                "qt": [
                    -40.09168438485541,
                    -40.091684384855434,
                    -40.09168438484426
                ],
                "pt": [
                    -90.07547381157028,
                    -90.07547381157863,
                    -90.07547381157023
                ],
                "pf": [
                    90.51023394267108,
                    90.51023394267806,
                    90.51023394266936
                ]
            }
        },
        "settings": {
            "sbase": 100000.0
        },
        "load": {
            "load24": {
                "qd_bus": [
                    66.66666666666667,
                    66.66666666666667,
                    66.66666666666667
                ],
                "pd_bus": [
                    140.00000000000003,
                    140.00000000000003,
                    140.00000000000003
                ],
                "qd": [
                    66.66666666666667,
                    66.66666666666667,
                    66.66666666666667
                ],
                "pd": [
                    140.00000000000003,
                    140.00000000000003,
                    140.00000000000003
                ]
            },
            "load26": {
                "qd_bus": [
                    8.333333333333334,
                    8.333333333333334,
                    8.333333333333334
                ],
                "pd_bus": [
                    20.0,
                    20.0,
                    20.0
                ],
                "qd": [
                    8.333333333333334,
                    8.333333333333334,
                    8.333333333333334
                ],
                "pd": [
                    20.0,
                    20.0,
                    20.0
                ]
            },
            "load2": {
                "qd_bus": [
                    13.333333333333334,
                    13.333333333333334,
                    13.333333333333334
                ],
                "pd_bus": [
                    30.000000000000004,
                    30.000000000000004,
                    30.000000000000004
                ],
                "qd": [
                    13.333333333333334,
                    13.333333333333334,
                    13.333333333333334
                ],
                "pd": [
                    30.000000000000004,
                    30.000000000000004,
                    30.000000000000004
                ]
            },
            "load11": {
                "qd_bus": [
                    11.666666666666666,
                    11.666666666666666,
                    11.666666666666666
                ],
                "pd_bus": [
                    20.0,
                    20.0,
                    20.0
                ],
                "qd": [
                    11.666666666666666,
                    11.666666666666666,
                    11.666666666666666
                ],
                "pd": [
                    20.0,
                    20.0,
                    20.0
                ]
            },
            "load3": {
                "qd_bus": [
                    26.666666666666668,
                    26.666666666666668,
                    26.666666666666668
                ],
                "pd_bus": [
                    40.0,
                    40.0,
                    40.0
                ],
                "qd": [
                    26.666666666666668,
                    26.666666666666668,
                    26.666666666666668
                ],
                "pd": [
                    40.0,
                    40.0,
                    40.0
                ]
            },
            "load31": {
                "qd_bus": [
                    33.333333333333336,
                    33.333333333333336,
                    33.333333333333336
                ],
                "pd_bus": [
                    70.00000000000001,
                    70.00000000000001,
                    70.00000000000001
                ],
                "qd": [
                    33.333333333333336,
                    33.333333333333336,
                    33.333333333333336
                ],
                "pd": [
                    70.00000000000001,
                    70.00000000000001,
                    70.00000000000001
                ]
            },
            "load8": {
                "qd_bus": [
                    6.666666666666667,
                    6.666666666666667,
                    6.666666666666667
                ],
                "pd_bus": [
                    20.0,
                    20.0,
                    20.0
                ],
                "qd": [
                    6.666666666666667,
                    6.666666666666667,
                    6.666666666666667
                ],
                "pd": [
                    20.0,
                    20.0,
                    20.0
                ]
            },
            "load22": {
                "qd_bus": [
                    16.666666666666668,
                    16.666666666666668,
                    16.666666666666668
                ],
                "pd_bus": [
                    30.000000000000004,
                    30.000000000000004,
                    30.000000000000004
                ],
                "qd": [
                    16.666666666666668,
                    16.666666666666668,
                    16.666666666666668
                ],
                "pd": [
                    30.000000000000004,
                    30.000000000000004,
                    30.000000000000004
                ]
            },
            "load21": {
                "qd_bus": [
                    13.333333333333334,
                    13.333333333333334,
                    13.333333333333334
                ],
                "pd_bus": [
                    30.000000000000004,
                    30.000000000000004,
                    30.000000000000004
                ],
                "qd": [
                    13.333333333333334,
                    13.333333333333334,
                    13.333333333333334
                ],
                "pd": [
                    30.000000000000004,
                    30.000000000000004,
                    30.000000000000004
                ]
            },
            "load29": {
                "qd_bus": [
                    200.0,
                    200.0,
                    200.0
                ],
                "pd_bus": [
                    66.66666666666667,
                    66.66666666666667,
                    66.66666666666667
                ],
                "qd": [
                    200.0,
                    200.0,
                    200.0
                ],
                "pd": [
                    66.66666666666667,
                    66.66666666666667,
                    66.66666666666667
                ]
            },
            "load12": {
                "qd_bus": [
                    11.666666666666666,
                    11.666666666666666,
                    11.666666666666666
                ],
                "pd_bus": [
                    20.0,
                    20.0,
                    20.0
                ],
                "qd": [
                    11.666666666666666,
                    11.666666666666666,
                    11.666666666666666
                ],
                "pd": [
                    20.0,
                    20.0,
                    20.0
                ]
            },
            "load13": {
                "qd_bus": [
                    26.666666666666668,
                    26.666666666666668,
                    26.666666666666668
                ],
                "pd_bus": [
                    40.0,
                    40.0,
                    40.0
                ],
                "qd": [
                    26.666666666666668,
                    26.666666666666668,
                    26.666666666666668
                ],
                "pd": [
                    40.0,
                    40.0,
                    40.0
                ]
            },
            "load10": {
                "qd_bus": [
                    10.0,
                    10.0,
                    10.0
                ],
                "pd_bus": [
                    15.000000000000002,
                    15.000000000000002,
                    15.000000000000002
                ],
                "qd": [
                    10.0,
                    10.0,
                    10.0
                ],
                "pd": [
                    15.000000000000002,
                    15.000000000000002,
                    15.000000000000002
                ]
            },
            "load28": {
                "qd_bus": [
                    23.333333333333332,
                    23.333333333333332,
                    23.333333333333332
                ],
                "pd_bus": [
                    40.0,
                    40.0,
                    40.0
                ],
                "qd": [
                    23.333333333333332,
                    23.333333333333332,
                    23.333333333333332
                ],
                "pd": [
                    40.0,
                    40.0,
                    40.0
                ]
            },
            "load7": {
                "qd_bus": [
                    33.333333333333336,
                    33.333333333333336,
                    33.333333333333336
                ],
                "pd_bus": [
                    66.66666666666667,
                    66.66666666666667,
                    66.66666666666667
                ],
                "qd": [
                    33.333333333333336,
                    33.333333333333336,
                    33.333333333333336
                ],
                "pd": [
                    66.66666666666667,
                    66.66666666666667,
                    66.66666666666667
                ]
            },
            "load15": {
                "qd_bus": [
                    6.666666666666667,
                    6.666666666666667,
                    6.666666666666667
                ],
                "pd_bus": [
                    20.0,
                    20.0,
                    20.0
                ],
                "qd": [
                    6.666666666666667,
                    6.666666666666667,
                    6.666666666666667
                ],
                "pd": [
                    20.0,
                    20.0,
                    20.0
                ]
            },
            "load27": {
                "qd_bus": [
                    6.666666666666667,
                    6.666666666666667,
                    6.666666666666667
                ],
                "pd_bus": [
                    20.0,
                    20.0,
                    20.0
                ],
                "qd": [
                    6.666666666666667,
                    6.666666666666667,
                    6.666666666666667
                ],
                "pd": [
                    20.0,
                    20.0,
                    20.0
                ]
            },
            "load18": {
                "qd_bus": [
                    13.333333333333334,
                    13.333333333333334,
                    13.333333333333334
                ],
                "pd_bus": [
                    30.000000000000004,
                    30.000000000000004,
                    30.000000000000004
                ],
                "qd": [
                    13.333333333333334,
                    13.333333333333334,
                    13.333333333333334
                ],
                "pd": [
                    30.000000000000004,
                    30.000000000000004,
                    30.000000000000004
                ]
            },
            "load20": {
                "qd_bus": [
                    13.333333333333334,
                    13.333333333333334,
                    13.333333333333334
                ],
                "pd_bus": [
                    30.000000000000004,
                    30.000000000000004,
                    30.000000000000004
                ],
                "qd": [
                    13.333333333333334,
                    13.333333333333334,
                    13.333333333333334
                ],
                "pd": [
                    30.000000000000004,
                    30.000000000000004,
                    30.000000000000004
                ]
            },
            "load14": {
                "qd_bus": [
                    3.3333333333333335,
                    3.3333333333333335,
                    3.3333333333333335
                ],
                "pd_bus": [
                    20.0,
                    20.0,
                    20.0
                ],
                "qd": [
                    3.3333333333333335,
                    3.3333333333333335,
                    3.3333333333333335
                ],
                "pd": [
                    20.0,
                    20.0,
                    20.0
                ]
            },
            "load4": {
                "qd_bus": [
                    10.0,
                    10.0,
                    10.0
                ],
                "pd_bus": [
                    20.0,
                    20.0,
                    20.0
                ],
                "qd": [
                    10.0,
                    10.0,
                    10.0
                ],
                "pd": [
                    20.0,
                    20.0,
                    20.0
                ]
            },
            "load1": {
                "qd_bus": [
                    20.0,
                    20.0,
                    20.0
                ],
                "pd_bus": [
                    33.333333333333336,
                    33.333333333333336,
                    33.333333333333336
                ],
                "qd": [
                    20.0,
                    20.0,
                    20.0
                ],
                "pd": [
                    33.333333333333336,
                    33.333333333333336,
                    33.333333333333336
                ]
            },
            "load5": {
                "qd_bus": [
                    6.666666666666667,
                    6.666666666666667,
                    6.666666666666667
                ],
                "pd_bus": [
                    20.0,
                    20.0,
                    20.0
                ],
                "qd": [
                    6.666666666666667,
                    6.666666666666667,
                    6.666666666666667
                ],
                "pd": [
                    20.0,
                    20.0,
                    20.0
                ]
            },
            "load23": {
                "qd_bus": [
                    66.66666666666667,
                    66.66666666666667,
                    66.66666666666667
                ],
                "pd_bus": [
                    140.00000000000003,
                    140.00000000000003,
                    140.00000000000003
                ],
                "qd": [
                    66.66666666666667,
                    66.66666666666667,
                    66.66666666666667
                ],
                "pd": [
                    140.00000000000003,
                    140.00000000000003,
                    140.00000000000003
                ]
            },
            "load19": {
                "qd_bus": [
                    13.333333333333334,
                    13.333333333333334,
                    13.333333333333334
                ],
                "pd_bus": [
                    30.000000000000004,
                    30.000000000000004,
                    30.000000000000004
                ],
                "qd": [
                    13.333333333333334,
                    13.333333333333334,
                    13.333333333333334
                ],
                "pd": [
                    30.000000000000004,
                    30.000000000000004,
                    30.000000000000004
                ]
            },
            "load17": {
                "qd_bus": [
                    13.333333333333334,
                    13.333333333333334,
                    13.333333333333334
                ],
                "pd_bus": [
                    30.000000000000004,
                    30.000000000000004,
                    30.000000000000004
                ],
                "qd": [
                    13.333333333333334,
                    13.333333333333334,
                    13.333333333333334
                ],
                "pd": [
                    30.000000000000004,
                    30.000000000000004,
                    30.000000000000004
                ]
            },
            "load16": {
                "qd_bus": [
                    6.666666666666667,
                    6.666666666666667,
                    6.666666666666667
                ],
                "pd_bus": [
                    20.0,
                    20.0,
                    20.0
                ],
                "qd": [
                    6.666666666666667,
                    6.666666666666667,
                    6.666666666666667
                ],
                "pd": [
                    20.0,
                    20.0,
                    20.0
                ]
            },
            "load9": {
                "qd_bus": [
                    6.666666666666667,
                    6.666666666666667,
                    6.666666666666667
                ],
                "pd_bus": [
                    20.0,
                    20.0,
                    20.0
                ],
                "qd": [
                    6.666666666666667,
                    6.666666666666667,
                    6.666666666666667
                ],
                "pd": [
                    20.0,
                    20.0,
                    20.0
                ]
            },
            "load6": {
                "qd_bus": [
                    33.333333333333336,
                    33.333333333333336,
                    33.333333333333336
                ],
                "pd_bus": [
                    66.66666666666667,
                    66.66666666666667,
                    66.66666666666667
                ],
                "qd": [
                    33.333333333333336,
                    33.333333333333336,
                    33.333333333333336
                ],
                "pd": [
                    66.66666666666667,
                    66.66666666666667,
                    66.66666666666667
                ]
            },
            "load25": {
                "qd_bus": [
                    8.333333333333334,
                    8.333333333333334,
                    8.333333333333334
                ],
                "pd_bus": [
                    20.0,
                    20.0,
                    20.0
                ],
                "qd": [
                    8.333333333333334,
                    8.333333333333334,
                    8.333333333333334
                ],
                "pd": [
                    20.0,
                    20.0,
                    20.0
                ]
            },
            "load30": {
                "qd_bus": [
                    23.333333333333332,
                    23.333333333333332,
                    23.333333333333332
                ],
                "pd_bus": [
                    50.0,
                    50.0,
                    50.0
                ],
                "qd": [
                    23.333333333333332,
                    23.333333333333332,
                    23.333333333333332
                ],
                "pd": [
                    50.0,
                    50.0,
                    50.0
                ]
            },
            "load32": {
                "qd_bus": [
                    13.333333333333334,
                    13.333333333333334,
                    13.333333333333334
                ],
                "pd_bus": [
                    20.0,
                    20.0,
                    20.0
                ],
                "qd": [
                    13.333333333333334,
                    13.333333333333334,
                    13.333333333333334
                ],
                "pd": [
                    20.0,
                    20.0,
                    20.0
                ]
            }
        },
        "bus": {
            "bus14": {
                "va": [
                    -10.72650511563244,
                    -130.72650511563126,
                    109.27349488436928
                ],
                "vm": [
                    5.083696035899977,
                    5.083696035900026,
                    5.083696035900337
                ]
            },
            "bus7": {
                "va": [
                    -10.297431038446405,
                    -130.29743103844538,
                    109.702568961555
                ],
                "vm": [
                    5.350575972730374,
                    5.3505759727304225,
                    5.3505759727306845
                ]
            },
            "bus27": {
                "va": [
                    -9.74775863325227,
                    -129.74775863325127,
                    110.25224136674899
                ],
                "vm": [
                    5.340763235296071,
                    5.34076323529612,
                    5.3407632352963805
                ]
            },
            "bus30": {
                "va": [
                    -9.293132691185237,
                    -129.29313269118424,
                    110.70686730881592
                ],
                "vm": [
                    5.116946121407635,
                    5.116946121407684,
                    5.116946121407963
                ]
            },
            "bus15": {
                "va": [
                    -10.792279971800982,
                    -130.7922799717998,
                    109.20772002820077
                ],
                "vm": [
                    5.070013665049802,
                    5.070013665049849,
                    5.070013665050164
                ]
            },
            "bus33": {
                "va": [
                    -9.493780038877809,
                    -129.4937800388768,
                    110.50621996112334
                ],
                "vm": [
                    5.065133627646525,
                    5.065133627646576,
                    5.06513362764686
                ]
            },
            "bus5": {
                "va": [
                    -9.75318427529733,
                    -129.75318427529643,
                    110.24681572470392
                ],
                "vm": [
                    5.560700087571902,
                    5.560700087571939,
                    5.5607000875721875
                ]
            },
            "bus12": {
                "va": [
                    -10.431972584628731,
                    -130.4319725846276,
                    109.56802741537291
                ],
                "vm": [
                    5.164773814200811,
                    5.164773814200863,
                    5.164773814201159
                ]
            },
            "bus10": {
                "va": [
                    -10.46493780822262,
                    -130.46493780822146,
                    109.53506219177902
                ],
                "vm": [
                    5.187553105466087,
                    5.187553105466139,
                    5.187553105466433
                ]
            },
            "bus2": {
                "va": [
                    -10.109383083259942,
                    -130.1093830832591,
                    109.89061691674137
                ],
                "vm": [
                    5.836960906771996,
                    5.8369609067720045,
                    5.836960906772248
                ]
            },
            "bus6": {
                "va": [
                    -9.909117371618263,
                    -129.90911737161727,
                    110.09088262838304
                ],
                "vm": [
                    5.384045591736052,
                    5.384045591736101,
                    5.384045591736359
                ]
            },
            "bus1": {
                "va": [
                    -10.133090907338604,
                    -130.1330909073378,
                    109.86690909266271
                ],
                "vm": [
                    5.865001553303794,
                    5.8650015533038,
                    5.865001553304041
                ]
            },
            "bus17": {
                "va": [
                    -10.968533032859192,
                    -130.968533032858,
                    109.0314669671426
                ],
                "vm": [
                    5.037098324239922,
                    5.037098324239968,
                    5.037098324240289
                ]
            },
            "bus11": {
                "va": [
                    -10.452230557640977,
                    -130.45223055763984,
                    109.54776944236066
                ],
                "vm": [
                    5.179254266944446,
                    5.179254266944499,
                    5.179254266944794
                ]
            },
            "bus29": {
                "va": [
                    -9.475446474166665,
                    -129.47544647416566,
                    110.52455352583452
                ],
                "vm": [
                    5.151268878137144,
                    5.151268878137193,
                    5.1512688781374685
                ]
            },
            "bus20": {
                "va": [
                    -10.23093058183674,
                    -130.2309305818359,
                    109.76906941816456
                ],
                "vm": [
                    5.799384947038661,
                    5.799384947038667,
                    5.799384947038918
                ]
            },
            "bus19": {
                "va": [
                    -10.126271099961656,
                    -130.1262710999608,
                    109.87372890003965
                ],
                "vm": [
                    5.832127768206682,
                    5.83212776820669,
                    5.832127768206935
                ]
            },
            "bus9": {
                "va": [
                    -10.35841894933236,
                    -130.35841894933125,
                    109.64158105066917
                ],
                "vm": [
                    5.243654941704942,
                    5.243654941704994,
                    5.243654941705276
                ]
            },
            "bus26": {
                "va": [
                    -9.842652860812256,
                    -129.84265286081126,
                    110.15734713918904
                ],
                "vm": [
                    5.365469531272351,
                    5.365469531272401,
                    5.365469531272659
                ]
            },
            "bus31": {
                "va": [
                    -9.43999605606732,
                    -129.43999605606632,
                    110.56000394393382
                ],
                "vm": [
                    5.0767251295413285,
                    5.0767251295413764,
                    5.0767251295416616
                ]
            },
            "bus22": {
                "va": [
                    -10.293161486634848,
                    -130.293161486634,
                    109.70683851336646
                ],
                "vm": [
                    5.787101126193754,
                    5.787101126193759,
                    5.787101126194013
                ]
            },
            "bus8": {
                "va": [
                    -10.234992427638314,
                    -130.23499242763725,
                    109.76500757236312
                ],
                "vm": [
                    5.304085589191265,
                    5.304085589191316,
                    5.304085589191586
                ]
            },
            "bus21": {
                "va": [
                    -10.261258058829064,
                    -130.26125805882822,
                    109.73874194117224
                ],
                "vm": [
                    5.7929364364248395,
                    5.792936436424844,
                    5.792936436425098
                ]
            },
            "bus16": {
                "va": [
                    -10.832910710626043,
                    -130.83291071062484,
                    109.16708928937571
                ],
                "vm": [
                    5.05675718060069,
                    5.056757180600736,
                    5.056757180601053
                ]
            },
            "bus18": {
                "va": [
                    -10.98539888946684,
                    -130.98539888946564,
                    109.01460111053497
                ],
                "vm": [
                    5.031212181847822,
                    5.0312121818478674,
                    5.031212181848191
                ]
            },
            "bus3": {
                "va": [
                    -9.974707110156793,
                    -129.97470711015595,
                    110.02529288984451
                ],
                "vm": [
                    5.703254532565889,
                    5.703254532565911,
                    5.703254532566158
                ]
            },
            "bus24": {
                "va": [
                    -10.165860044024084,
                    -130.16586004402325,
                    109.83413995597721
                ],
                "vm": [
                    5.608113924193681,
                    5.608113924193704,
                    5.608113924193954
                ]
            },
            "bus32": {
                "va": [
                    -9.480259710835034,
                    -129.48025971083402,
                    110.51974028916612
                ],
                "vm": [
                    5.067875914235368,
                    5.067875914235416,
                    5.067875914235702
                ]
            },
            "bus4": {
                "va": [
                    -9.865456031325754,
                    -129.8654560313249,
                    110.13454396867552
                ],
                "vm": [
                    5.631631568409746,
                    5.631631568409775,
                    5.6316315684100235
                ]
            },
            "bus28": {
                "va": [
                    -9.608453200164817,
                    -129.60845320016384,
                    110.3915467998364
                ],
                "vm": [
                    5.230507911515688,
                    5.230507911515738,
                    5.230507911516006
                ]
            },
            "bus13": {
                "va": [
                    -10.589434204925553,
                    -130.58943420492437,
                    109.41056579507614
                ],
                "vm": [
                    5.105639769696378,
                    5.1056397696964275,
                    5.105639769696734
                ]
            },
            "bus25": {
                "va": [
                    -10.236240430902866,
                    -130.236240430902,
                    109.76375956909844
                ],
                "vm": [
                    5.577237780093658,
                    5.577237780093681,
                    5.577237780093932
                ]
            },
            "bus23": {
                "va": [
                    -10.023838434191426,
                    -130.02383843419057,
                    109.97616156580986
                ],
                "vm": [
                    5.670004714833826,
                    5.670004714833849,
                    5.6700047148340955
                ]
            }
        },
        "per_unit": false
    },
    "objective_lb": null
}
